tests/data/short_circuit/two_phase_c_minimum/input.json
{
  "attributes": {},
  "data": {
    "fault": [
      {
        "fault_object": 3,
        "fault_phase": -1,
        "fault_type": 2,
        "id": 10,
        "r_f": 0.01,
        "status": 1,
        "x_f": 0.01
      }
    ],
    "line": [
      {
        "c0": 6.4e-07,
        "c1": 6.4e-07,
        "from_node": 1,
        "from_status": 1,
        "i_n": 660,
        "id": 7,
        "r0": 0.75,
        "r1": 0.049,
        "tan0": 0,
        "tan1": 0,
        "to_node": 2,
        "to_status": 1,
        "x0": 0.04,
        "x1": 0.153
      },
      {
        "c0": 3.2e-07,
        "c1": 3.2e-07,
        "from_node": 2,
        "from_status": 1,
        "i_n": 660,
        "id": 8,
        "r0": 0.375,
        "r1": 0.0245,
        "tan0": 0,
        "tan1": 0,
        "to_node": 3,
        "to_status": 1,
        "x0": 0.02,
        "x1": 0.0765
      }
    ],
    "node": [
      {
        "id": 0,
        "u_rated": 150000
      },
      {
        "id": 1,
        "u_rated": 10000
      },
      {
        "id": 2,
        "u_rated": 10000
      },
      {
        "id": 3,
        "u_rated": 10000
      }
    ],
    "shunt": [
      {
        "b0": 5,
        "b1": 0,
        "g0": 0,
        "g1": 0,
        "id": 9,
        "node": 1,
        "status": 1
      }
    ],
    "source": [
      {
        "id": 4,
        "node": 0,
        "rx_ratio": 0.1,
        "sk": 20000000000,
        "status": 1,
        "u_ref": 1,
        "u_ref_angle": 0,
        "z01_ratio": 1
      },
      {
        "id": 5,
        "node": 2,
        "rx_ratio": 0.1,
        "sk": 2000000000,
        "status": 1,
        "u_ref": 1,
        "u_ref_angle": -0.5235987755982988,
        "z01_ratio": 1
      }
    ],
    "transformer": [
      {
        "clock": 1,
        "from_node": 0,
        "from_status": 1,
        "i0": 0,
        "id": 6,
        "p0": 0,
        "pk": 0,
        "sn": 20000000,
        "tap_max": 1,
        "tap_min": -1,
        "tap_nom": 0,
        "tap_pos": 0,
        "tap_side": 0,
        "tap_size": 100,
        "to_node": 1,
        "to_status": 1,
        "u1": 150000,
        "u2": 10000,
        "uk": 0.05,
        "winding_from": 1,
        "winding_to": 2
      }
    ]
  },
  "is_batch": false,
  "type": "input",
  "version": "1.0"
}